@<TRIPOS>MOLECULE
UDP
   36    37     1     0     0
SMALL
Total charge: -2.194


@<TRIPOS>ATOM
      1 O3B          3.5370     1.4230    -0.0000 OS         1 UDP      -0.501858
      2 PB           3.0020     2.8300    -0.5780 P          1 UDP       1.200948
      3 O1B          4.2930     3.5610    -0.8480 O2         1 UDP      -0.799968
      4 O2B          2.2320     3.3770     0.5650 O2         1 UDP      -0.799968
      5 O3A          2.1680     2.5510    -1.8020 OS         1 UDP      -0.374263
      6 PA           1.4140     3.6600    -2.4970 P          1 UDP       1.370088
      7 O1A          2.2340     4.8720    -2.8350 O2         1 UDP      -0.873053
      8 O2A          0.1350     3.9890    -1.8330 O2         1 UDP      -0.873053
      9 O5*          0.9590     3.1460    -3.9140 OS         1 UDP      -0.538805
     10 C5*          1.3300     1.9190    -4.5270 CT         1 UDP       0.114694
     11 H1           2.3430     1.6470    -4.2730 H1         1 UDP       0.025139
     12 H2           0.6730     1.1230    -4.1820 H1         1 UDP       0.025139
     13 C4*          1.2420     2.0100    -6.0550 CT         1 UDP       0.162719
     14 C3*          2.2200     2.9550    -6.7810 CT         1 UDP       0.196811
     15 H3           2.3420     3.8800    -6.2150 H1         1 UDP       0.119158
     16 C2*          1.4740     3.2370    -8.0690 CT         1 UDP       0.261204
     17 H4           1.8220     4.1740    -8.5060 H1         1 UDP       0.009755
     18 O2*          1.6360     2.1690    -9.0320 OH         1 UDP      -0.737474
     19 H5           2.5900     2.1480    -9.2540 HO         1 UDP       0.453036
     20 O3*          3.4950     2.3200    -6.9970 OH         1 UDP      -0.752468
     21 H6           3.8680     2.1680    -6.1120 HO         1 UDP       0.463184
     22 H7           1.3780     1.0120    -6.4650 H1         1 UDP       0.040084
     23 O4*         -0.0630     2.4620    -6.4720 OS         1 UDP      -0.436049
     24 C1*          0.0520     3.3300    -7.5830 CT         1 UDP       0.058279
     25 H8          -0.6330     2.9880    -8.3610 H2         1 UDP       0.166609
     26 N1          -0.2920     4.7180    -7.2480 N*         1 UDP       0.050142
     27 C2          -0.3140     5.7080    -8.2680 C          1 UDP       0.620838
     28 O2          -0.2270     5.3900    -9.4550 O          1 UDP      -0.669510
     29 N3          -0.5400     7.0630    -7.9340 NA         1 UDP      -0.480912
     30 H9          -0.6090     7.7500    -8.6500 H          1 UDP       0.310926
     31 C4          -0.7830     7.4250    -6.5940 C          1 UDP       0.718334
     32 O4          -0.9880     8.6000    -6.2900 O          1 UDP      -0.682873
     33 C5          -0.8360     6.3770    -5.5760 CM         1 UDP      -0.402640
     34 H10         -1.0570     6.6070    -4.5790 HA         1 UDP       0.196451
     35 C6          -0.6210     5.1000    -5.9190 CM         1 UDP      -0.186913
     36 H11         -0.7030     4.3770    -5.1680 H4         1 UDP       0.352266
@<TRIPOS>BOND
     1     1     2 1   
     2     2     3 1   
     3     2     4 1   
     4     2     5 1   
     5     5     6 1   
     6     6     7 1   
     7     6     8 1   
     8     6     9 1   
     9     9    10 1   
    10    10    11 1   
    11    10    12 1   
    12    10    13 1   
    13    13    14 1   
    14    13    22 1   
    15    13    23 1   
    16    14    15 1   
    17    14    16 1   
    18    14    20 1   
    19    16    17 1   
    20    16    18 1   
    21    16    24 1   
    22    18    19 1   
    23    20    21 1   
    24    23    24 1   
    25    24    25 1   
    26    24    26 1   
    27    26    27 1   
    28    26    35 1   
    29    27    28 2   
    30    27    29 1   
    31    29    30 1   
    32    29    31 1   
    33    31    32 2   
    34    31    33 1   
    35    33    34 1   
    36    33    35 2   
    37    35    36 1   
@<TRIPOS>SUBSTRUCTURE
     1 UDP         1 TEMP              0 ****  ****    0 ROOT
